120096
  -OEChem-08182311142D

 18 16  0     1  0  0  0  0  0999 V2000
    2.0000   -1.6345    0.0000 Ca  0  2  0  0  0  0  0  0  0  0  0  0
    3.0000   -0.6345    0.0000 P   0  0  0  0  0  0  0  0  0  0  0  0
    4.0000   -0.6345    0.0000 O   0  0  0  0  0  0  0  0  0  0  0  0
    6.0000   -0.6345    0.0000 O   0  0  0  0  0  0  0  0  0  0  0  0
    7.0000    1.0976    0.0000 O   0  0  0  0  0  0  0  0  0  0  0  0
    2.0000   -0.6345    0.0000 O   0  5  0  0  0  0  0  0  0  0  0  0
    3.0000   -1.6345    0.0000 O   0  5  0  0  0  0  0  0  0  0  0  0
    3.0000    0.3655    0.0000 O   0  0  0  0  0  0  0  0  0  0  0  0
    5.5000    0.2315    0.0000 C   0  0  3  0  0  0  0  0  0  0  0  0
    4.5000    0.2315    0.0000 C   0  0  0  0  0  0  0  0  0  0  0  0
    6.0000    1.0976    0.0000 C   0  0  0  0  0  0  0  0  0  0  0  0
    6.3500    0.2315    0.0000 H   0  0  0  0  0  0  0  0  0  0  0  0
    4.6077    0.8421    0.0000 H   0  0  0  0  0  0  0  0  0  0  0  0
    3.9174    0.4436    0.0000 H   0  0  0  0  0  0  0  0  0  0  0  0
    6.1077    1.7081    0.0000 H   0  0  0  0  0  0  0  0  0  0  0  0
    5.4174    1.3096    0.0000 H   0  0  0  0  0  0  0  0  0  0  0  0
    6.6200   -0.6345    0.0000 H   0  0  0  0  0  0  0  0  0  0  0  0
    7.3100    1.6345    0.0000 H   0  0  0  0  0  0  0  0  0  0  0  0
  2  3  1  0  0  0  0
  2  6  1  0  0  0  0
  2  7  1  0  0  0  0
  2  8  2  0  0  0  0
  3 10  1  0  0  0  0
  4  9  1  0  0  0  0
  4 17  1  0  0  0  0
  5 11  1  0  0  0  0
  5 18  1  0  0  0  0
  9 10  1  0  0  0  0
  9 11  1  0  0  0  0
  9 12  1  0  0  0  0
 10 13  1  0  0  0  0
 10 14  1  0  0  0  0
 11 15  1  0  0  0  0
 11 16  1  0  0  0  0
M  CHG  3   1   2   6  -1   7  -1
M  END
> <PUBCHEM_COMPOUND_CID>
120096

> <PUBCHEM_COMPOUND_CANONICALIZED>
1

> <PUBCHEM_CACTVS_COMPLEXITY>
117

> <PUBCHEM_CACTVS_HBOND_ACCEPTOR>
6

> <PUBCHEM_CACTVS_HBOND_DONOR>
2

> <PUBCHEM_CACTVS_ROTATABLE_BOND>
3

> <PUBCHEM_CACTVS_SUBSKEYS>
AAADcYBAOAIAAAgAAAAAAAAAAAAAAAAAAAAAAAAAAAAAAAAAAAAAGgAACCAACBSggAIAAAAAAxAAQAAAAIAAAAAAAAAAAAAAAAABEAAAAAAAQAABAAABAAAAAAAAAAAAAAAAAAAAAAAAAAAAAAAAAAAAAA==

> <PUBCHEM_IUPAC_OPENEYE_NAME>
calcium;2,3-dihydroxypropyl phosphate

> <PUBCHEM_IUPAC_CAS_NAME>
calcium;2,3-dihydroxypropyl phosphate

> <PUBCHEM_IUPAC_NAME_MARKUP>
calcium;2,3-dihydroxypropyl phosphate

> <PUBCHEM_IUPAC_NAME>
calcium;2,3-dihydroxypropyl phosphate

> <PUBCHEM_IUPAC_SYSTEMATIC_NAME>
calcium;2,3-bis(oxidanyl)propyl phosphate

> <PUBCHEM_IUPAC_TRADITIONAL_NAME>
calcium;glyceryl phosphate

> <PUBCHEM_IUPAC_INCHI>
InChI=1S/C3H9O6P.Ca/c4-1-3(5)2-9-10(6,7)8;/h3-5H,1-2H2,(H2,6,7,8);/q;+2/p-2

> <PUBCHEM_IUPAC_INCHIKEY>
IWIRHXNCFWGFJE-UHFFFAOYSA-L

> <PUBCHEM_EXACT_MASS>
209.9606158

> <PUBCHEM_MOLECULAR_FORMULA>
C3H7CaO6P

> <PUBCHEM_MOLECULAR_WEIGHT>
210.14

> <PUBCHEM_OPENEYE_CAN_SMILES>
C(C(COP(=O)([O-])[O-])O)O.[Ca+2]

> <PUBCHEM_OPENEYE_ISO_SMILES>
C(C(COP(=O)([O-])[O-])O)O.[Ca+2]

> <PUBCHEM_CACTVS_TPSA>
113

> <PUBCHEM_MONOISOTOPIC_WEIGHT>
209.9606158

> <PUBCHEM_TOTAL_CHARGE>
0

> <PUBCHEM_HEAVY_ATOM_COUNT>
11

> <PUBCHEM_ATOM_DEF_STEREO_COUNT>
0

> <PUBCHEM_ATOM_UDEF_STEREO_COUNT>
1

> <PUBCHEM_BOND_DEF_STEREO_COUNT>
0

> <PUBCHEM_BOND_UDEF_STEREO_COUNT>
0

> <PUBCHEM_ISOTOPIC_ATOM_COUNT>
0

> <PUBCHEM_COMPONENT_COUNT>
2

> <PUBCHEM_CACTVS_TAUTO_COUNT>
1

> <PUBCHEM_COORDINATE_TYPE>
1
5
255

> <PUBCHEM_BONDANNOTATIONS>
9  12  3

$$$$
11125
  -OEChem-08182311152D

  6  3  0     0  0  0  0  0  0999 V2000
    4.5981    0.7500    0.0000 O   0  5  0  0  0  0  0  0  0  0  0  0
    2.8660    0.7500    0.0000 O   0  5  0  0  0  0  0  0  0  0  0  0
    3.7320   -0.7500    0.0000 O   0  0  0  0  0  0  0  0  0  0  0  0
    3.7320    0.2500    0.0000 C   0  0  0  0  0  0  0  0  0  0  0  0
    5.4641    0.2500    0.0000 Li  0  3  0  0  0  0  0  0  0  0  0  0
    2.0000    0.2500    0.0000 Li  0  3  0  0  0  0  0  0  0  0  0  0
  1  4  1  0  0  0  0
  2  4  1  0  0  0  0
  3  4  2  0  0  0  0
M  CHG  4   1  -1   2  -1   5   1   6   1
M  END
> <PUBCHEM_COMPOUND_CID>
11125

> <PUBCHEM_COMPOUND_CANONICALIZED>
1

> <PUBCHEM_CACTVS_COMPLEXITY>
18.8

> <PUBCHEM_CACTVS_HBOND_ACCEPTOR>
3

> <PUBCHEM_CACTVS_HBOND_DONOR>
0

> <PUBCHEM_CACTVS_ROTATABLE_BOND>
0

> <PUBCHEM_CACTVS_SUBSKEYS>
AAADcQwAMAAAAAAAAAAAAAAAAAAAAAAAAAAAAAAAAAAAAAAAAAAAAgAAAAAAAAAAAAAACAAAAAAIAAAACAAAAAAAAAAAAAAAAAAAAAAAAAAAAAAAAAAAAAAAAAAAAAAAAAAAAAAAAAAAAAAAAAAAAAAAAA==

> <PUBCHEM_IUPAC_OPENEYE_NAME>
dilithium;carbonate

> <PUBCHEM_IUPAC_CAS_NAME>
dilithium;carbonate

> <PUBCHEM_IUPAC_NAME_MARKUP>
dilithium;carbonate

> <PUBCHEM_IUPAC_NAME>
dilithium;carbonate

> <PUBCHEM_IUPAC_SYSTEMATIC_NAME>
dilithium;carbonate

> <PUBCHEM_IUPAC_TRADITIONAL_NAME>
dilithium;carbonate

> <PUBCHEM_IUPAC_INCHI>
InChI=1S/CH2O3.2Li/c2-1(3)4;;/h(H2,2,3,4);;/q;2*+1/p-2

> <PUBCHEM_IUPAC_INCHIKEY>
XGZVUEUWXADBQD-UHFFFAOYSA-L

> <PUBCHEM_EXACT_MASS>
74.01675073

> <PUBCHEM_MOLECULAR_FORMULA>
CLi2O3

> <PUBCHEM_MOLECULAR_WEIGHT>
73.9

> <PUBCHEM_OPENEYE_CAN_SMILES>
[Li+].[Li+].C(=O)([O-])[O-]

> <PUBCHEM_OPENEYE_ISO_SMILES>
[Li+].[Li+].C(=O)([O-])[O-]

> <PUBCHEM_CACTVS_TPSA>
63.2

> <PUBCHEM_MONOISOTOPIC_WEIGHT>
74.01675073

> <PUBCHEM_TOTAL_CHARGE>
0

> <PUBCHEM_HEAVY_ATOM_COUNT>
6

> <PUBCHEM_ATOM_DEF_STEREO_COUNT>
0

> <PUBCHEM_ATOM_UDEF_STEREO_COUNT>
0

> <PUBCHEM_BOND_DEF_STEREO_COUNT>
0

> <PUBCHEM_BOND_UDEF_STEREO_COUNT>
0

> <PUBCHEM_ISOTOPIC_ATOM_COUNT>
0

> <PUBCHEM_COMPONENT_COUNT>
3

> <PUBCHEM_CACTVS_TAUTO_COUNT>
1

> <PUBCHEM_COORDINATE_TYPE>
1
5
255

$$$$

